Version 4
SHEET 1 1256 1280
WIRE 512 -192 -352 -192
WIRE 336 64 240 64
WIRE 512 96 512 -192
WIRE 576 96 512 96
WIRE 672 96 640 96
WIRE 736 96 672 96
WIRE 752 96 736 96
WIRE 336 112 336 64
WIRE 672 112 672 96
WIRE 848 144 800 144
WIRE -352 160 -352 -192
WIRE 48 160 -352 160
WIRE 96 160 48 160
WIRE 176 160 160 160
WIRE 272 160 176 160
WIRE 48 208 48 160
WIRE 672 240 672 192
WIRE 128 256 112 256
WIRE 160 256 128 256
WIRE 240 256 240 64
WIRE 48 400 48 304
WIRE 192 400 48 400
WIRE 224 400 192 400
WIRE 336 400 336 208
WIRE 336 400 224 400
WIRE 672 400 672 320
WIRE 672 400 336 400
WIRE 128 448 128 336
WIRE 128 448 32 448
WIRE 560 640 -144 640
WIRE 352 848 272 848
WIRE 1136 848 352 848
WIRE 1232 848 1136 848
WIRE -144 896 -144 640
WIRE 0 896 -144 896
WIRE 48 896 0 896
WIRE 208 896 112 896
WIRE 288 896 208 896
WIRE 0 944 0 896
WIRE 80 992 64 992
WIRE 128 992 80 992
WIRE 272 992 272 848
WIRE 272 992 208 992
WIRE 560 992 560 640
WIRE 656 992 624 992
WIRE 720 992 656 992
WIRE 848 1040 848 144
WIRE 848 1040 784 1040
WIRE 1136 1040 848 1040
WIRE 1232 1040 1136 1040
WIRE 128 1072 128 992
WIRE 208 1072 208 992
WIRE 208 1072 192 1072
WIRE 0 1152 0 1040
WIRE 176 1152 0 1152
WIRE 352 1152 352 944
WIRE 352 1152 176 1152
WIRE 656 1152 352 1152
WIRE 784 1152 784 1120
WIRE 784 1152 656 1152
WIRE 80 1216 80 1072
WIRE 80 1216 -128 1216
FLAG 48 80 0
FLAG 336 -96 0
FLAG 192 480 0
FLAG 176 -160 0
FLAG -112 448 0
FLAG 800 48 0
FLAG 176 0 0
FLAG 0 816 0
FLAG 208 736 0
FLAG 336 -16 +9V
IOPIN 336 -16 BiDir
FLAG 352 768 +9V
IOPIN 352 768 BiDir
FLAG 224 400 -9V
IOPIN 224 400 BiDir
FLAG 176 1152 -9V
IOPIN 176 1152 BiDir
FLAG -272 1216 0
FLAG 784 944 0
FLAG 1136 1040 Dot_VDO
FLAG 1136 848 Vertical_Blanking
SYMBOL npn 272 112 R0
SYMATTR InstName Q1
SYMATTR Value 2N2222
SYMBOL npn 112 208 M0
SYMATTR InstName Q2
SYMATTR Value 2N3391A
SYMBOL res 256 240 R90
WINDOW 0 0 56 VBottom 2
WINDOW 3 32 56 VTop 2
SYMATTR InstName R1
SYMATTR Value 27k
SYMBOL cap 160 144 R90
WINDOW 0 0 32 VBottom 2
WINDOW 3 32 32 VTop 2
SYMATTR InstName C1
SYMATTR Value 82p
SYMBOL res 32 64 R0
SYMATTR InstName R2
SYMATTR Value 1k
SYMBOL res 320 -32 R0
SYMATTR InstName R3
SYMATTR Value 100k
SYMBOL voltage 336 0 R180
WINDOW 0 24 96 Left 2
WINDOW 3 24 16 Left 2
WINDOW 123 0 0 Left 0
WINDOW 39 0 0 Left 0
SYMATTR InstName V1
SYMATTR Value 9
SYMBOL voltage 192 496 R180
WINDOW 0 24 96 Left 2
WINDOW 3 24 16 Left 2
WINDOW 123 0 0 Left 0
WINDOW 39 0 0 Left 0
SYMATTR InstName V2
SYMATTR Value 9
SYMBOL res 112 240 R0
SYMATTR InstName R4
SYMATTR Value 100k
SYMBOL cap 32 432 R90
WINDOW 0 0 32 VBottom 2
WINDOW 3 32 32 VTop 2
SYMATTR InstName C2
SYMATTR Value 27p
SYMBOL res 160 64 R0
SYMATTR InstName R5
SYMATTR Value 10k
SYMBOL res 160 -16 R0
SYMATTR InstName R6
SYMATTR Value 50k
SYMBOL voltage 176 -64 R180
WINDOW 0 24 96 Left 2
WINDOW 3 24 16 Left 2
WINDOW 123 0 0 Left 0
WINDOW 39 0 0 Left 0
SYMATTR InstName V3
SYMATTR Value PULSE(0 9 0 0 0 12.195m 24.390m)
SYMBOL voltage -16 448 R90
WINDOW 0 -32 56 VBottom 2
WINDOW 3 32 56 VTop 2
WINDOW 123 0 0 Left 0
WINDOW 39 0 0 Left 0
SYMATTR InstName V4
SYMATTR Value PULSE(0 9 0 0 0 4.7u 63.56u)
SYMBOL pnp 736 144 M180
SYMATTR InstName Q3
SYMATTR Value 2N2907
SYMBOL res 656 96 R0
SYMATTR InstName R7
SYMATTR Value 4.7k
SYMBOL res 656 224 R0
SYMATTR InstName R8
SYMATTR Value 100k
SYMBOL cap 640 80 R90
WINDOW 0 0 32 VBottom 2
WINDOW 3 32 32 VTop 2
SYMATTR InstName C3
SYMATTR Value 180p
SYMBOL npn 288 848 R0
SYMATTR InstName Q4
SYMATTR Value 2N2222
SYMBOL npn 64 944 M0
SYMATTR InstName Q5
SYMATTR Value 2N2222
SYMBOL res 336 752 R0
SYMATTR InstName R11
SYMATTR Value 10k
SYMBOL cap 112 880 R90
WINDOW 0 0 32 VBottom 2
WINDOW 3 32 32 VTop 2
SYMATTR InstName C4
SYMATTR Value .22µ
SYMBOL res -16 800 R0
SYMATTR InstName R12
SYMATTR Value 3.3k
SYMBOL res 192 800 R0
SYMATTR InstName R13
SYMATTR Value 20k
SYMBOL res 192 720 R0
SYMATTR InstName R14
SYMATTR Value 150k
SYMBOL res 224 976 R90
WINDOW 0 0 56 VBottom 2
WINDOW 3 32 56 VTop 2
SYMATTR InstName R15
SYMATTR Value 100k
SYMBOL cap 192 1056 R90
WINDOW 0 0 32 VBottom 2
WINDOW 3 32 32 VTop 2
SYMATTR InstName C5
SYMATTR Value 390p
SYMBOL res 64 976 R0
SYMATTR InstName R16
SYMATTR Value 100k
SYMBOL cap -128 1200 R90
WINDOW 0 0 32 VBottom 2
WINDOW 3 32 32 VTop 2
SYMATTR InstName C6
SYMATTR Value 1000p
SYMBOL voltage -176 1216 R90
WINDOW 0 -32 56 VBottom 2
WINDOW 3 32 56 VTop 2
WINDOW 123 0 0 Left 0
WINDOW 39 0 0 Left 0
SYMATTR InstName V5
SYMATTR Value PULSE(0 9 0 0 0 1m 16.683m)
SYMBOL pnp 720 1040 M180
SYMATTR InstName Q6
SYMATTR Value 2N2907
SYMBOL cap 624 976 R90
WINDOW 0 0 32 VBottom 2
WINDOW 3 32 32 VTop 2
SYMATTR InstName C7
SYMATTR Value .05µ
SYMBOL res 640 976 R0
SYMATTR InstName R17
SYMATTR Value 4.7k
SYMBOL res 640 1056 R0
SYMATTR InstName R18
SYMATTR Value 50k
SYMBOL res 768 1024 R0
SYMATTR InstName R19
SYMATTR Value 3.3k
TEXT 392 528 Left 2 !.tran 10u
