Version 4
SHEET 1 1060 680
WIRE 512 -192 -352 -192
WIRE 176 0 176 -80
WIRE 336 64 240 64
WIRE 512 96 512 -192
WIRE 576 96 512 96
WIRE 672 96 640 96
WIRE 736 96 672 96
WIRE 752 96 736 96
WIRE 336 112 336 64
WIRE 672 112 672 96
WIRE 960 144 800 144
WIRE -352 160 -352 -192
WIRE 48 160 -352 160
WIRE 96 160 48 160
WIRE 176 160 160 160
WIRE 272 160 176 160
WIRE 48 208 48 160
WIRE 672 240 672 192
WIRE 128 256 112 256
WIRE 160 256 128 256
WIRE 240 256 240 64
WIRE 48 400 48 304
WIRE 192 400 48 400
WIRE 336 400 336 208
WIRE 336 400 192 400
WIRE 672 400 672 320
WIRE 672 400 336 400
WIRE 800 400 800 224
WIRE 800 400 672 400
WIRE 128 448 128 336
WIRE 128 448 32 448
FLAG 48 80 0
FLAG 336 -96 0
FLAG 192 480 0
FLAG 176 -160 0
FLAG -112 448 0
FLAG 800 48 0
SYMBOL npn 272 112 R0
SYMATTR InstName Q1
SYMATTR Value 2N2222
SYMBOL npn 112 208 M0
SYMATTR InstName Q2
SYMATTR Value 2N3391A
SYMBOL res 256 240 R90
WINDOW 0 0 56 VBottom 2
WINDOW 3 32 56 VTop 2
SYMATTR InstName R1
SYMATTR Value 27k
SYMBOL cap 160 144 R90
WINDOW 0 0 32 VBottom 2
WINDOW 3 32 32 VTop 2
SYMATTR InstName C1
SYMATTR Value .2µ
SYMBOL res 32 64 R0
SYMATTR InstName R2
SYMATTR Value 1k
SYMBOL res 320 -32 R0
SYMATTR InstName R3
SYMATTR Value 30k
SYMBOL voltage 336 0 R180
WINDOW 0 24 96 Left 2
WINDOW 3 24 16 Left 2
WINDOW 123 0 0 Left 0
WINDOW 39 0 0 Left 0
SYMATTR InstName V1
SYMATTR Value 9
SYMBOL voltage 192 496 R180
WINDOW 0 24 96 Left 2
WINDOW 3 24 16 Left 2
WINDOW 123 0 0 Left 0
WINDOW 39 0 0 Left 0
SYMATTR InstName V2
SYMATTR Value 9
SYMBOL res 112 240 R0
SYMATTR InstName R4
SYMATTR Value 100k
SYMBOL cap 32 432 R90
WINDOW 0 0 32 VBottom 2
WINDOW 3 32 32 VTop 2
SYMATTR InstName C2
SYMATTR Value 27p
SYMBOL res 160 64 R0
SYMATTR InstName R5
SYMATTR Value 10k
SYMBOL res 160 -16 R0
SYMATTR InstName R6
SYMATTR Value 10k
SYMBOL voltage 176 -64 R180
WINDOW 0 24 96 Left 2
WINDOW 3 24 16 Left 2
WINDOW 123 0 0 Left 0
WINDOW 39 0 0 Left 0
SYMATTR InstName V3
SYMATTR Value PULSE(0 9 0 0 0 12.195m 24.390m)
SYMBOL voltage -16 448 R90
WINDOW 0 -32 56 VBottom 2
WINDOW 3 32 56 VTop 2
WINDOW 123 0 0 Left 0
WINDOW 39 0 0 Left 0
SYMATTR InstName V4
SYMATTR Value PULSE(0 9 0 0 0 31.776u 63.552898u)
SYMBOL pnp 736 144 M180
SYMATTR InstName Q3
SYMBOL res 656 96 R0
SYMATTR InstName R7
SYMATTR Value 4.7k
SYMBOL res 656 224 R0
SYMATTR InstName R8
SYMATTR Value 75k
SYMBOL cap 640 80 R90
WINDOW 0 0 32 VBottom 2
WINDOW 3 32 32 VTop 2
SYMATTR InstName C3
SYMATTR Value 180p
SYMBOL res 784 128 R0
SYMATTR InstName R9
SYMATTR Value 3.3k
SYMBOL res 1056 128 R90
WINDOW 0 0 56 VBottom 2
WINDOW 3 32 56 VTop 2
SYMATTR InstName R10
SYMATTR Value 51k
TEXT 392 528 Left 2 !.tran 30m
