Version 4
SHEET 1 880 680
WIRE -80 -224 -112 -224
WIRE 0 -224 -16 -224
WIRE 128 -144 0 -144
WIRE -144 -64 -256 -64
WIRE 0 -64 -80 -64
WIRE 96 -64 0 -64
WIRE 208 -16 208 -144
WIRE 384 32 384 -16
WIRE 384 32 272 32
WIRE -144 64 -256 64
WIRE 96 64 96 -64
WIRE 96 64 -80 64
WIRE 384 144 384 32
WIRE 112 192 96 192
WIRE 208 192 208 80
WIRE 208 192 192 192
WIRE 240 192 208 192
WIRE 320 192 240 192
WIRE 240 224 240 192
WIRE 96 336 96 192
WIRE 96 336 16 336
FLAG -144 192 0
FLAG -192 -224 0
FLAG 384 320 0
FLAG 240 304 0
FLAG -336 -64 0
FLAG 0 16 0
FLAG 384 -176 0
FLAG -144 336 0
FLAG 96 400 0
FLAG -336 64 0
SYMBOL npn 320 144 R0
SYMATTR InstName Q1
SYMATTR Value 2N3904
SYMBOL pnp 272 80 R180
SYMATTR InstName Q2
SYMATTR Value 2N3906
SYMBOL voltage -96 -224 R90
WINDOW 0 -32 56 VBottom 2
WINDOW 3 -51 43 VBottom 2
WINDOW 123 0 0 Left 0
WINDOW 39 -32 -22 VBottom 2
SYMATTR InstName V1
SYMATTR Value PULSE(0 9 0 0 0 31776n 63553n 10)
SYMATTR SpiceLine Rser=0
SYMBOL voltage -48 192 R90
WINDOW 0 -32 56 VBottom 2
WINDOW 3 32 56 VTop 2
WINDOW 123 0 0 Left 0
WINDOW 39 0 0 Left 0
SYMATTR InstName V2
SYMATTR Value PULSE(0 8 30u 0 0 12.5u 25u 1)
SYMBOL res 368 224 R0
SYMATTR InstName R1
SYMATTR Value 1
SYMBOL res 224 208 R0
SYMATTR InstName R2
SYMATTR Value 150k
SYMBOL res 208 176 R90
WINDOW 0 0 56 VBottom 2
WINDOW 3 32 56 VTop 2
SYMATTR InstName R4
SYMATTR Value 33k
SYMBOL res -16 -240 R0
SYMATTR InstName R3
SYMATTR Value 2k
SYMBOL voltage -240 -64 R90
WINDOW 0 -32 56 VBottom 2
WINDOW 3 32 56 VTop 2
WINDOW 123 0 0 Left 0
WINDOW 39 0 0 Left 0
SYMATTR InstName V3
SYMATTR Value PULSE(0 8.5 0 0 0 139664p 279329p 100k)
SYMBOL res -16 -160 R0
SYMATTR InstName R5
SYMATTR Value 10k
SYMBOL res -16 -80 R0
SYMATTR InstName R6
SYMATTR Value 20k
SYMBOL diode -144 -48 R270
WINDOW 0 32 32 VTop 2
WINDOW 3 0 32 VBottom 2
SYMATTR InstName D2
SYMATTR Value 1N914
SYMBOL diode -80 -208 R270
WINDOW 0 32 32 VTop 2
WINDOW 3 0 32 VBottom 2
SYMATTR InstName D3
SYMATTR Value 1N914
SYMBOL res 368 -112 R0
SYMATTR InstName R7
SYMATTR Value 10k
SYMBOL voltage 384 -80 R180
WINDOW 0 24 96 Left 2
WINDOW 3 24 16 Left 2
WINDOW 123 0 0 Left 0
WINDOW 39 0 0 Left 0
SYMATTR InstName V4
SYMATTR Value 9
SYMBOL voltage -48 336 R90
WINDOW 0 -32 56 VBottom 2
WINDOW 3 32 56 VTop 2
WINDOW 123 0 0 Left 0
WINDOW 39 0 0 Left 0
SYMATTR InstName V5
SYMATTR Value 9
SYMBOL res -80 352 R270
WINDOW 0 32 56 VTop 2
WINDOW 3 0 56 VBottom 2
SYMATTR InstName R8
SYMATTR Value 500k
SYMBOL cap 80 336 R0
SYMATTR InstName C1
SYMATTR Value 100µ
SYMBOL res 32 176 R90
WINDOW 0 0 56 VBottom 2
WINDOW 3 32 56 VTop 2
SYMATTR InstName R9
SYMATTR Value 10k
SYMBOL res 224 -160 R90
WINDOW 0 0 56 VBottom 2
WINDOW 3 32 56 VTop 2
SYMATTR InstName R10
SYMATTR Value 1
SYMBOL voltage -240 64 R90
WINDOW 0 -32 56 VBottom 2
WINDOW 3 32 56 VTop 2
WINDOW 123 0 0 Left 0
WINDOW 39 0 0 Left 0
SYMATTR InstName V6
SYMATTR Value PULSE(0 8.5 69832p 0 0 139664p 279329p 100k)
SYMBOL diode -80 48 R90
WINDOW 0 0 32 VBottom 2
WINDOW 3 32 32 VTop 2
SYMATTR InstName D1
SYMATTR Value 1N914
TEXT 232 384 Left 2 !.tran 100u
