Version 4
SHEET 1 880 680
WIRE 48 144 -160 144
WIRE 208 144 128 144
WIRE 336 144 208 144
WIRE 448 144 336 144
WIRE 208 272 208 208
FLAG 208 336 0
FLAG 336 208 0
FLAG 448 144 24V
IOPIN 448 144 Out
FLAG -160 144 Transformer
IOPIN -160 144 In
SYMBOL res 144 128 R90
WINDOW 0 0 56 VBottom 2
WINDOW 3 32 56 VTop 2
SYMATTR InstName R1
SYMATTR Value 750
SYMBOL zener 224 208 R180
WINDOW 0 24 64 Left 2
WINDOW 3 24 0 Left 2
SYMATTR InstName D1
SYMATTR Value BZX84C12L
SYMATTR Description Diode
SYMATTR Type diode
SYMBOL zener 224 336 R180
WINDOW 0 24 64 Left 2
WINDOW 3 24 0 Left 2
SYMATTR InstName D2
SYMATTR Value BZX84B11VL
SYMATTR Description Diode
SYMATTR Type diode
SYMBOL cap 320 144 R0
SYMATTR InstName C1
SYMATTR Value 1µ
