Version 4
SHEET 1 880 680
WIRE 320 -32 64 -32
WIRE 576 -32 416 -32
WIRE 752 -32 576 -32
WIRE 368 48 368 32
WIRE 368 48 208 48
WIRE 64 96 64 -32
WIRE 208 96 208 48
WIRE 368 96 368 48
WIRE 576 112 576 -32
WIRE 368 240 368 160
WIRE 576 240 576 176
WIRE 576 240 368 240
WIRE 64 256 64 176
WIRE 208 256 208 176
WIRE 208 256 64 256
WIRE 64 304 64 256
WIRE 64 304 -208 304
WIRE 368 512 368 240
FLAG 368 512 0
FLAG 752 -32 9V
IOPIN 752 -32 Out
FLAG -208 304 Transformer
IOPIN -208 304 In
SYMBOL res 48 80 R0
SYMATTR InstName 430
SYMATTR Value 432
SYMATTR SpiceLine tol=1 pwr=0.25
SYMBOL res 192 80 R0
SYMATTR InstName 2k
SYMATTR Value 2K
SYMATTR SpiceLine tol=1 pwr=0.25
SYMBOL zener 384 160 R180
WINDOW 0 24 64 Left 2
WINDOW 3 24 0 Left 2
SYMATTR InstName D1
SYMATTR Value BZX84C10L
SYMATTR Description Diode
SYMATTR Type diode
SYMBOL npn 320 32 R270
SYMATTR InstName Q1
SYMATTR Value 2N2222
SYMBOL polcap 560 112 R0
SYMATTR InstName C1
SYMATTR Value 200µ
