Version 4
SHEET 1 1068 680
WIRE 304 -416 64 -416
WIRE 400 -416 400 -528
WIRE 400 -416 304 -416
WIRE 512 -416 400 -416
WIRE 768 -416 512 -416
WIRE 512 -320 512 -416
WIRE 624 -320 512 -320
WIRE 624 -288 624 -320
WIRE 64 -256 64 -416
WIRE 304 -256 304 -416
WIRE 512 -256 512 -320
WIRE 768 -256 768 -416
WIRE 512 -160 512 -176
WIRE 624 -160 624 -208
WIRE 624 -160 512 -160
WIRE 624 -144 400 -144
WIRE 768 -144 768 -176
WIRE 768 -144 688 -144
WIRE 880 -144 768 -144
WIRE 64 -128 64 -176
WIRE 160 -128 64 -128
WIRE 352 -128 224 -128
WIRE 64 -32 64 -128
WIRE 352 -32 352 -128
WIRE 512 -32 512 -160
WIRE 512 -32 352 -32
WIRE 576 -32 512 -32
WIRE 768 -32 768 -144
WIRE 304 16 304 -176
WIRE 304 16 128 16
WIRE 400 16 400 -144
WIRE 400 16 304 16
WIRE 576 16 576 -32
WIRE 704 16 576 16
WIRE 64 256 64 64
WIRE 400 256 64 256
WIRE 768 256 768 64
WIRE 768 256 400 256
WIRE 400 368 400 256
FLAG 400 -528 0
FLAG 400 368 +9V
IOPIN 400 368 In
FLAG 880 -144 Horiz_Sync
IOPIN 880 -144 Out
SYMBOL res 48 -272 R0
SYMATTR InstName R1
SYMATTR Value 10K
SYMATTR SpiceLine tol=1 pwr=0.1
SYMBOL res 288 -272 R0
SYMATTR InstName R2
SYMATTR Value 82.5K
SYMATTR SpiceLine tol=1 pwr=0.1
SYMBOL res 496 -272 R0
SYMATTR InstName R3
SYMATTR Value 82.5K
SYMATTR SpiceLine tol=1 pwr=0.1
SYMBOL res 752 -272 R0
SYMATTR InstName R4
SYMATTR Value 10K
SYMATTR SpiceLine tol=1 pwr=0.1
SYMBOL cap 224 -144 R90
WINDOW 0 0 32 VBottom 2
WINDOW 3 32 32 VTop 2
SYMATTR InstName C1
SYMATTR Value 560p
SYMATTR SpiceLine V=50 Irms=0 Rser=0 Lser=0 mfg="Murata" pn="GCM1555C1H561JA16" type="C0G"
SYMBOL cap 688 -160 R90
WINDOW 0 0 32 VBottom 2
WINDOW 3 32 32 VTop 2
SYMATTR InstName C2
SYMATTR Value 560p
SYMATTR SpiceLine V=50 Irms=0 Rser=0 Lser=0 mfg="Murata" pn="GCM1555C1H561JA16" type="C0G"
SYMBOL pnp 704 -32 R0
SYMATTR InstName Q1
SYMATTR Value 2N2907
SYMBOL pnp 128 -32 M0
SYMATTR InstName Q2
SYMATTR Value 2N2907
SYMBOL res 608 -304 R0
SYMATTR InstName R5
SYMATTR Value 2Meg
SYMATTR SpiceLine tol=1 pwr=0.1
