Version 4
SHEET 1 1640 708
WIRE -32 -64 -96 -64
WIRE 624 -64 224 -64
WIRE 1056 -16 576 -16
WIRE 1552 0 1392 0
WIRE 1056 16 1040 16
WIRE -240 64 -384 64
WIRE -96 64 -96 -64
WIRE -96 64 -176 64
WIRE -16 64 -96 64
WIRE 576 64 576 -16
WIRE 576 64 224 64
WIRE 656 64 576 64
WIRE 976 64 896 64
WIRE -96 176 -96 64
WIRE -16 176 -96 176
WIRE 1040 176 1040 16
WIRE 1040 176 448 176
WIRE -384 336 -384 64
WIRE -384 336 -480 336
WIRE -16 336 -384 336
WIRE 816 336 240 336
WIRE 864 480 256 480
WIRE -384 608 -384 336
WIRE -16 608 -384 608
WIRE 1040 608 256 608
FLAG -560 336 0
FLAG 1040 688 0
FLAG 864 560 0
FLAG 816 416 0
FLAG 768 256 0
FLAG 656 144 0
FLAG 976 144 0
FLAG 1552 80 0
SYMBOL diode -240 80 R270
WINDOW 0 32 32 VTop 2
WINDOW 3 0 32 VBottom 2
SYMATTR InstName D1
SYMATTR Value 1N4148
SYMBOL Misc\\signal -464 336 R90
WINDOW 0 -32 56 VBottom 2
WINDOW 3 32 56 VTop 2
WINDOW 123 0 0 Left 0
WINDOW 39 0 0 Left 0
SYMATTR InstName V1
SYMATTR Value SINE(0 26.5 60)
SYMBOL 24_Volt_Supply 96 -64 R0
SYMATTR InstName X4
SYMBOL 50_Volt_Supply 112 608 R0
SYMATTR InstName X1
SYMBOL 9_Volt_Supply 96 64 R0
SYMATTR InstName X2
SYMBOL Vert_Sync_Part1 208 176 R0
SYMATTR InstName X3
SYMBOL -9_Volt_Supply 112 336 R0
SYMATTR InstName X5
SYMBOL -30_Volt_Supply 112 480 R0
SYMATTR InstName X6
SYMBOL Horizontal 768 64 R0
SYMATTR InstName X7
SYMBOL res 960 48 R0
SYMATTR InstName R1
SYMATTR Value 1Meg
SYMBOL Vertical 1216 0 R0
SYMATTR InstName X8
SYMBOL res 1536 -16 R0
SYMATTR InstName R2
SYMATTR Value 1Meg
TEXT 104 -248 Left 2 !.tran 1
