Version 4
SHEET 1 880 680
WIRE 176 112 176 -16
WIRE 144 224 0 224
WIRE 176 224 176 176
WIRE 176 224 144 224
WIRE 320 224 176 224
WIRE 496 224 320 224
FLAG 0 304 0
FLAG 144 288 0
FLAG 320 288 0
FLAG 496 224 Vert_Sync_Part_1
IOPIN 496 224 Out
FLAG 176 -16 Transformer
IOPIN 176 -16 In
SYMBOL polcap 160 112 R0
SYMATTR InstName C1
SYMATTR Value 100µ
SYMBOL res -16 208 R0
SYMATTR InstName R1
SYMATTR Value 51
SYMBOL diode 128 224 R0
SYMATTR InstName D1
SYMATTR Value 1N914
SYMBOL diode 304 224 R0
SYMATTR InstName D2
SYMATTR Value 1N914
