Version 4
SHEET 1 880 680
WIRE 96 224 32 224
WIRE 208 224 160 224
WIRE 336 224 208 224
WIRE 496 224 400 224
WIRE 592 224 496 224
WIRE 208 272 208 224
WIRE 496 272 496 224
WIRE 208 400 208 336
WIRE 496 400 496 336
WIRE 496 400 208 400
WIRE 208 432 208 400
FLAG 208 432 0
FLAG 32 224 Transformer
IOPIN 32 224 In
FLAG 592 224 -30V
IOPIN 592 224 Out
SYMBOL polcap 96 240 R270
WINDOW 0 32 32 VTop 2
WINDOW 3 0 32 VBottom 2
SYMATTR InstName C1
SYMATTR Value 47µ
SYMBOL zener 192 272 R0
SYMATTR InstName D1
SYMATTR Value BZX84C30VL
SYMATTR Description Diode
SYMATTR Type diode
SYMBOL zener 400 208 R90
WINDOW 0 0 32 VBottom 2
WINDOW 3 32 32 VTop 2
SYMATTR InstName D2
SYMATTR Value BZX84C30VL
SYMATTR Description Diode
SYMATTR Type diode
SYMBOL polcap 512 336 R180
WINDOW 0 24 57 Left 2
WINDOW 3 24 8 Left 2
SYMATTR InstName C2
SYMATTR Value 22µ
