Version 4
SHEET 1 880 680
WIRE -192 160 -304 160
WIRE 64 160 -128 160
WIRE 176 160 64 160
WIRE 336 160 256 160
WIRE 560 160 432 160
WIRE 672 160 560 160
WIRE 176 256 176 160
WIRE 384 256 384 224
WIRE 384 256 256 256
WIRE 384 272 384 256
WIRE 384 432 384 336
FLAG 384 432 0
FLAG 64 224 0
FLAG 560 224 0
FLAG -304 160 Transformer
IOPIN -304 160 In
FLAG 672 160 -9V
IOPIN 672 160 Out
SYMBOL polcap 48 160 R0
SYMATTR InstName C1
SYMATTR Value 200µ
SYMBOL res 272 144 R90
WINDOW 0 0 56 VBottom 2
WINDOW 3 32 56 VTop 2
SYMATTR InstName R1
SYMATTR Value 430
SYMBOL res 272 240 R90
WINDOW 0 0 56 VBottom 2
WINDOW 3 32 56 VTop 2
SYMATTR InstName R2
SYMATTR Value 2k
SYMBOL zener 368 272 R0
SYMATTR InstName D1
SYMATTR Value BZX84C10L
SYMATTR Description Diode
SYMATTR Type diode
SYMBOL polcap 576 224 R180
WINDOW 0 24 57 Left 2
WINDOW 3 24 8 Left 2
SYMATTR InstName C2
SYMATTR Value 200µ
SYMBOL pnp 336 224 R270
SYMATTR InstName Q1
SYMATTR Value 2N3906
SYMBOL diode -128 144 R90
WINDOW 0 0 32 VBottom 2
WINDOW 3 32 32 VTop 2
SYMATTR InstName D2
SYMATTR Value 1N4148
