Version 4
SHEET 1 1100 680
WIRE 64 144 -64 144
WIRE 320 144 144 144
WIRE 464 144 384 144
WIRE 544 144 464 144
WIRE 704 144 608 144
WIRE 864 144 704 144
WIRE 976 144 864 144
WIRE 464 176 464 144
WIRE 704 176 704 144
WIRE 864 176 864 144
WIRE 464 304 464 240
WIRE 704 304 704 240
WIRE 704 304 464 304
WIRE 864 304 864 256
WIRE 864 304 704 304
WIRE 464 320 464 304
FLAG 464 320 0
FLAG -64 144 Transformer
IOPIN -64 144 In
FLAG 976 144 +50V
IOPIN 976 144 Out
SYMBOL res 160 128 R90
WINDOW 0 0 56 VBottom 2
WINDOW 3 32 56 VTop 2
SYMATTR InstName R1
SYMATTR Value 100
SYMBOL cap 384 128 R90
WINDOW 0 0 32 VBottom 2
WINDOW 3 32 32 VTop 2
SYMATTR InstName C1
SYMATTR Value 1µ
SYMBOL diode 480 240 R180
WINDOW 0 24 64 Left 2
WINDOW 3 24 0 Left 2
SYMATTR InstName D1
SYMATTR Value 1N4148
SYMBOL diode 544 160 R270
WINDOW 0 32 32 VTop 2
WINDOW 3 0 32 VBottom 2
SYMATTR InstName D2
SYMATTR Value 1N4148
SYMBOL cap 688 176 R0
SYMATTR InstName C2
SYMATTR Value 1µ
SYMBOL res 848 160 R0
SYMATTR InstName R2
SYMATTR Value 1Meg
