Version 4
SHEET 1 2280 2468
WIRE 1472 -560 1232 -560
WIRE 1568 -560 1568 -672
WIRE 1568 -560 1472 -560
WIRE 1680 -560 1568 -560
WIRE 1936 -560 1680 -560
WIRE 1680 -464 1680 -560
WIRE 1792 -464 1680 -464
WIRE 1792 -432 1792 -464
WIRE 1232 -400 1232 -560
WIRE 1472 -400 1472 -560
WIRE 1680 -400 1680 -464
WIRE 1936 -400 1936 -560
WIRE 1680 -304 1680 -320
WIRE 1792 -304 1792 -352
WIRE 1792 -304 1680 -304
WIRE 1792 -288 1568 -288
WIRE 1936 -288 1936 -320
WIRE 1936 -288 1856 -288
WIRE 2192 -288 1936 -288
WIRE 1232 -272 1232 -320
WIRE 1328 -272 1232 -272
WIRE 1520 -272 1392 -272
WIRE 128 -208 -480 -208
WIRE 288 -208 208 -208
WIRE 416 -208 288 -208
WIRE 624 -208 416 -208
WIRE 1232 -176 1232 -272
WIRE 1520 -176 1520 -272
WIRE 1680 -176 1680 -304
WIRE 1680 -176 1520 -176
WIRE 1744 -176 1680 -176
WIRE 1936 -176 1936 -288
WIRE 1472 -128 1472 -320
WIRE 1472 -128 1296 -128
WIRE 1568 -128 1568 -288
WIRE 1568 -128 1472 -128
WIRE 1744 -128 1744 -176
WIRE 1872 -128 1744 -128
WIRE 288 -80 288 -144
WIRE 1232 112 1232 -80
WIRE 1568 112 1232 112
WIRE 1936 112 1936 -80
WIRE 1936 112 1568 112
WIRE 192 272 -64 272
WIRE 448 272 288 272
WIRE 1568 272 1568 112
WIRE 1568 272 448 272
WIRE 240 352 240 336
WIRE 240 352 80 352
WIRE -64 400 -64 272
WIRE 80 400 80 352
WIRE 240 400 240 352
WIRE 448 416 448 272
WIRE 240 544 240 464
WIRE 448 544 448 480
WIRE 448 544 240 544
WIRE -64 560 -64 480
WIRE 80 560 80 480
WIRE 80 560 -64 560
WIRE -480 608 -480 -208
WIRE -64 608 -64 560
WIRE -64 608 -480 608
WIRE -992 800 -1056 800
WIRE -480 800 -480 608
WIRE -480 800 -928 800
WIRE 240 816 240 544
WIRE 1568 1040 1568 272
WIRE 1568 1040 1488 1040
WIRE 1664 1040 1568 1040
WIRE -480 1072 -480 800
WIRE 64 1072 -480 1072
WIRE 1488 1072 1488 1040
WIRE 1664 1072 1664 1040
WIRE 1328 1152 1088 1152
WIRE 1488 1152 1392 1152
WIRE 1664 1168 1664 1152
WIRE 1952 1168 1664 1168
WIRE 1664 1184 1664 1168
WIRE 64 1200 64 1072
WIRE 1488 1232 1488 1152
WIRE 1600 1232 1488 1232
WIRE 32 1312 -112 1312
WIRE 64 1312 64 1264
WIRE 64 1312 32 1312
WIRE 208 1312 64 1312
WIRE 1088 1312 1088 1152
WIRE 1088 1312 208 1312
WIRE 1664 1344 1664 1280
WIRE -1280 1408 -1520 1408
WIRE -1056 1408 -1056 800
WIRE -1056 1408 -1200 1408
WIRE -1520 1424 -1520 1408
WIRE -1056 1696 -1056 1408
WIRE -256 1696 -1056 1696
WIRE 0 1696 -192 1696
WIRE 112 1696 0 1696
WIRE 272 1696 192 1696
WIRE 496 1696 368 1696
WIRE 720 1696 496 1696
WIRE 112 1792 112 1696
WIRE 320 1792 320 1760
WIRE 320 1792 192 1792
WIRE 320 1808 320 1792
WIRE 320 1968 320 1872
WIRE -1056 2272 -1056 1696
WIRE -224 2272 -1056 2272
WIRE 32 2272 -144 2272
WIRE 176 2272 96 2272
WIRE 256 2272 176 2272
WIRE 416 2272 320 2272
WIRE 576 2272 416 2272
WIRE 784 2272 576 2272
WIRE 176 2304 176 2272
WIRE 416 2304 416 2272
WIRE 576 2304 576 2272
WIRE 176 2432 176 2368
WIRE 416 2432 416 2368
WIRE 416 2432 176 2432
WIRE 576 2432 576 2384
WIRE 576 2432 416 2432
WIRE 176 2448 176 2432
FLAG 288 -16 0
FLAG 416 -144 0
FLAG 240 816 0
FLAG -112 1392 0
FLAG 32 1376 0
FLAG 208 1376 0
FLAG 320 1968 0
FLAG 0 1760 0
FLAG 496 1760 0
FLAG -1520 1424 0
FLAG 176 2448 0
FLAG 1568 -672 0
FLAG 1664 1344 0
FLAG 2192 -208 0
FLAG 1952 1248 0
FLAG 720 1776 0
FLAG 784 2352 0
FLAG 624 -128 0
SYMBOL res 224 -224 R90
WINDOW 0 0 56 VBottom 2
WINDOW 3 32 56 VTop 2
SYMATTR InstName R1
SYMATTR Value 750
SYMBOL zener 304 -144 R180
WINDOW 0 24 64 Left 2
WINDOW 3 24 0 Left 2
SYMATTR InstName D1
SYMATTR Value BZX84C12L
SYMATTR Description Diode
SYMATTR Type diode
SYMBOL zener 304 -16 R180
WINDOW 0 24 64 Left 2
WINDOW 3 24 0 Left 2
SYMATTR InstName D2
SYMATTR Value BZX84B11VL
SYMATTR Description Diode
SYMATTR Type diode
SYMBOL cap 400 -208 R0
SYMATTR InstName C1
SYMATTR Value 1µ
SYMBOL res -80 384 R0
SYMATTR InstName R2
SYMATTR Value 432
SYMATTR SpiceLine tol=1 pwr=0.25
SYMBOL res 64 384 R0
SYMATTR InstName R3
SYMATTR Value 2K
SYMATTR SpiceLine tol=1 pwr=0.25
SYMBOL zener 256 464 R180
WINDOW 0 24 64 Left 2
WINDOW 3 24 0 Left 2
SYMATTR InstName D3
SYMATTR Value BZX84C10L
SYMATTR Description Diode
SYMATTR Type diode
SYMBOL npn 192 336 R270
SYMATTR InstName Q1
SYMATTR Value 2N2222
SYMBOL polcap 432 416 R0
SYMATTR InstName C2
SYMATTR Value 200µ
SYMBOL polcap 48 1200 R0
SYMATTR InstName C3
SYMATTR Value 100µ
SYMBOL res -128 1296 R0
SYMATTR InstName R4
SYMATTR Value 51
SYMBOL diode 16 1312 R0
SYMATTR InstName D4
SYMATTR Value 1N914
SYMBOL diode 192 1312 R0
SYMATTR InstName D5
SYMATTR Value 1N914
SYMBOL polcap -16 1696 R0
SYMATTR InstName C4
SYMATTR Value 200µ
SYMBOL res 208 1680 R90
WINDOW 0 0 56 VBottom 2
WINDOW 3 32 56 VTop 2
SYMATTR InstName R5
SYMATTR Value 430
SYMBOL res 208 1776 R90
WINDOW 0 0 56 VBottom 2
WINDOW 3 32 56 VTop 2
SYMATTR InstName R6
SYMATTR Value 2k
SYMBOL zener 304 1808 R0
SYMATTR InstName D6
SYMATTR Value BZX84C10L
SYMATTR Description Diode
SYMATTR Type diode
SYMBOL polcap 512 1760 R180
WINDOW 0 24 57 Left 2
WINDOW 3 24 8 Left 2
SYMATTR InstName C5
SYMATTR Value 200µ
SYMBOL pnp 272 1760 R270
SYMATTR InstName Q2
SYMATTR Value 2N3906
SYMBOL diode -192 1680 R90
WINDOW 0 0 32 VBottom 2
WINDOW 3 32 32 VTop 2
SYMATTR InstName D7
SYMATTR Value 1N4148
SYMBOL Misc\\signal -1184 1408 R90
WINDOW 0 -32 56 VBottom 2
WINDOW 3 32 56 VTop 2
WINDOW 123 0 0 Left 0
WINDOW 39 0 0 Left 0
SYMATTR InstName V1
SYMATTR Value SINE(0 26.5 60)
SYMBOL diode -992 816 R270
WINDOW 0 32 32 VTop 2
WINDOW 3 0 32 VBottom 2
SYMATTR InstName D8
SYMATTR Value 1N4148
SYMBOL res -128 2256 R90
WINDOW 0 0 56 VBottom 2
WINDOW 3 32 56 VTop 2
SYMATTR InstName R7
SYMATTR Value 100
SYMBOL cap 96 2256 R90
WINDOW 0 0 32 VBottom 2
WINDOW 3 32 32 VTop 2
SYMATTR InstName C6
SYMATTR Value 1µ
SYMBOL diode 192 2368 R180
WINDOW 0 24 64 Left 2
WINDOW 3 24 0 Left 2
SYMATTR InstName D9
SYMATTR Value 1N4148
SYMBOL diode 256 2288 R270
WINDOW 0 32 32 VTop 2
WINDOW 3 0 32 VBottom 2
SYMATTR InstName D10
SYMATTR Value 1N4148
SYMBOL cap 400 2304 R0
SYMATTR InstName C7
SYMATTR Value 1µ
SYMBOL res 560 2288 R0
SYMATTR InstName R8
SYMATTR Value 1Meg
SYMBOL res 1216 -416 R0
SYMATTR InstName R9
SYMATTR Value 10K
SYMATTR SpiceLine tol=1 pwr=0.1
SYMBOL res 1456 -416 R0
SYMATTR InstName R10
SYMATTR Value 82.5K
SYMATTR SpiceLine tol=1 pwr=0.1
SYMBOL res 1664 -416 R0
SYMATTR InstName R11
SYMATTR Value 82.5K
SYMATTR SpiceLine tol=1 pwr=0.1
SYMBOL res 1920 -416 R0
SYMATTR InstName R12
SYMATTR Value 10K
SYMATTR SpiceLine tol=1 pwr=0.1
SYMBOL cap 1392 -288 R90
WINDOW 0 0 32 VBottom 2
WINDOW 3 32 32 VTop 2
SYMATTR InstName C8
SYMATTR Value 560p
SYMATTR SpiceLine V=50 Irms=0 Rser=0 Lser=0 mfg="Murata" pn="GCM1555C1H561JA16" type="C0G"
SYMBOL cap 1856 -304 R90
WINDOW 0 0 32 VBottom 2
WINDOW 3 32 32 VTop 2
SYMATTR InstName C9
SYMATTR Value 560p
SYMATTR SpiceLine V=50 Irms=0 Rser=0 Lser=0 mfg="Murata" pn="GCM1555C1H561JA16" type="C0G"
SYMBOL pnp 1872 -176 R0
SYMATTR InstName Q3
SYMATTR Value 2N2907
SYMBOL pnp 1296 -176 M0
SYMATTR InstName Q4
SYMATTR Value 2N2907
SYMBOL res 1776 -448 R0
SYMATTR InstName R13
SYMATTR Value 2Meg
SYMATTR SpiceLine tol=1 pwr=0.1
SYMBOL cap 1392 1136 R90
WINDOW 0 0 32 VBottom 2
WINDOW 3 32 32 VTop 2
SYMATTR InstName C10
SYMATTR Value 0.05µ
SYMBOL res 1472 1056 R0
SYMATTR InstName R14
SYMATTR Value 100k
SYMBOL res 1648 1056 R0
SYMATTR InstName R15
SYMATTR Value 10k
SYMBOL npn 1600 1184 R0
SYMATTR InstName Q5
SYMATTR Value 2N2222
SYMBOL res 1936 1152 R0
SYMATTR InstName R16
SYMATTR Value 1Meg
SYMBOL res 2176 -304 R0
SYMATTR InstName R17
SYMATTR Value 1Meg
SYMBOL res 704 1680 R0
SYMATTR InstName R18
SYMATTR Value 1Meg
SYMBOL res 768 2256 R0
SYMATTR InstName R19
SYMATTR Value 1Meg
SYMBOL res 608 -224 R0
SYMATTR InstName R20
SYMATTR Value 1Meg
TEXT 520 248 Left 4 ;+9V
TEXT 416 -232 Left 4 ;+24V
TEXT 208 1264 Left 4 ;Vertical Sync Part 1
TEXT 520 1672 Left 4 ;-9V
TEXT 576 2256 Left 4 ;+50V
TEXT 1584 632 Left 4 ;+9V
TEXT 168 -576 Left 2 !.tran 1
