Version 4
SHEET 1 880 680
WIRE 176 64 176 -64
WIRE 176 64 96 64
WIRE 272 64 176 64
WIRE 96 96 96 64
WIRE 272 96 272 64
WIRE 96 176 0 176
WIRE 272 192 272 176
WIRE 400 192 272 192
WIRE 272 208 272 192
WIRE 96 256 96 176
WIRE 208 256 96 256
WIRE 272 368 272 304
FLAG 272 368 0
FLAG -64 176 From_Power
IOPIN -64 176 In
FLAG 400 192 Vert_Sync
IOPIN 400 192 Out
FLAG 176 -64 +9V
IOPIN 176 -64 In
SYMBOL cap 0 160 R90
WINDOW 0 0 32 VBottom 2
WINDOW 3 32 32 VTop 2
SYMATTR InstName C1
SYMATTR Value 0.05µ
SYMBOL res 80 80 R0
SYMATTR InstName R1
SYMATTR Value 100k
SYMBOL res 256 80 R0
SYMATTR InstName R2
SYMATTR Value 10k
SYMBOL npn 208 208 R0
SYMATTR InstName Q1
